

Opening input/output transcript to file "/home/dika/Documents/ansys_projects/glass_liquid_sloshing_simulink/fluent-20250612-232045-4870.trn".
Auto-Transcript Start Time:  23:20:45, 12 Jun 2025 
/home/dika/Documents/ansys_inc/v251/fluent/fluent25.1.0/bin/fluent -r25.1.0 3ddp -pdefault -host -alnamd64 -t2 -mpi=intel -path/home/dika/Documents/ansys_inc/v251/fluent -ssh -cx dika-ROG-Strix-G814JV-G814JV:42035:39767
Starting /home/dika/Documents/ansys_inc/v251/fluent/fluent25.1.0/lnamd64/3ddp_host/fluent.25.1.0 host -cx dika-ROG-Strix-G814JV-G814JV:42035:39767 "(list (rpsetvar (QUOTE parallel/function) "fluent 3ddp -flux -node -alnamd64 -r25.1.0 -t2 -pdefault -mpi=intel -ssh") (rpsetvar (QUOTE parallel/rhost) "") (rpsetvar (QUOTE parallel/ruser) "") (rpsetvar (QUOTE parallel/nprocs_string) "2") (rpsetvar (QUOTE parallel/auto-spawn?) #t) (rpsetvar (QUOTE parallel/trace-level) 0) (rpsetvar (QUOTE parallel/remote-shell) 1) (rpsetvar (QUOTE parallel/path) "/home/dika/Documents/ansys_inc/v251/fluent") (rpsetvar (QUOTE parallel/hostsfile) "") (rpsetvar (QUOTE gpuapp/devices) ""))"

              Welcome to ANSYS Fluent 2025 R1

              Copyright 1987-2025 ANSYS, Inc. All Rights Reserved.
              Unauthorized use, distribution or duplication is prohibited.
              This product is subject to U.S. laws governing export and re-export.
              For full Legal Notice, see documentation.

Build Time: Nov 26 2024 15:35:45 EST  Build Id: 10210  
 
Connected License Server List:	1055@localhost

*********************************************
Info: Your license enables 4-way parallel execution.
For faster simulations, please start the application with the appropriate parallel options.
*********************************************

Host spawning Node 0 on machine "dika-ROG-Strix-G814JV-G814JV" (unix).
/home/dika/Documents/ansys_inc/v251/fluent/fluent25.1.0/bin/fluent -r25.1.0 3ddp -flux -node -alnamd64 -t2 -pdefault -mpi=intel -ssh -mport 127.0.1.1:127.0.1.1:34243:0
Starting /home/dika/Documents/ansys_inc/v251/fluent/fluent25.1.0/multiport/mpi/lnamd64/intel2021/bin/mpirun -f /tmp/fluent-appfile.dika.5520 -genv I_MPI_FABRICS shm -genv FLUENT_ARCH lnamd64 -genv I_MPI_DEBUG 0 -genv I_MPI_ADJUST_GATHERV 3 -genv I_MPI_ADJUST_ALLREDUCE 2 -genv I_MPI_PLATFORM auto -genv PYTHONHOME /home/dika/Documents/ansys_inc/v251/fluent/fluent25.1.0/../../commonfiles/CPython/3_10/linx64/Release/python -genv FLUENT_PROD_DIR /home/dika/Documents/ansys_inc/v251/fluent/fluent25.1.0 -genv FLUENT_AFFINITY 0 -genv I_MPI_PIN enable -genv KMP_AFFINITY disabled -n 2 /home/dika/Documents/ansys_inc/v251/fluent/fluent25.1.0/lnamd64/3ddp_node/fluent_mpi.25.1.0 node -mpiw intel -pic shmem -mport 127.0.1.1:127.0.1.1:34243:0

----------------------------------------------------------------------------------------------
ID    Hostname              Core  O.S.      PID        Vendor                                
----------------------------------------------------------------------------------------------
n0-1  dika-ROG-Strix-G814J  2/14  Linux-64  5603-5604  13th Gen Intel(R) Core(TM) i7-13650HX 
host  dika-ROG-Strix-G814J        Linux-64  5122       13th Gen Intel(R) Core(TM) i7-13650HX 

MPI Option Selected: intel
Selected system interconnect: shared-memory
----------------------------------------------------------------------------------------------

Cleanup script file is /home/dika/Documents/ansys_projects/glass_liquid_sloshing_simulink/cleanup-fluent-dika-ROG-Strix-G814JV-G814JV-5122.sh

Graphics driver currently in use: opengl2

Posting ANSYS Product Improvement Program startup data
Done.
Fast-loading "/home/dika/Documents/ansys_inc/v251/fluent/fluent25.1.0/addons/afd/lib/hdfio.bin"
Done.
WARNING: Rank:0 Machine dika-ROG-Strix-G814JV-G814JV has 24 % of RAM filled with file buffer caches.
This can cause potential performance issues. Please use -cflush flag to flush the cache. 


Reading from dika-ROG-Strix-G814JV-G814JV:"/home/dika/Documents/ansys_projects/glass_liquid_sloshing_simulink/FFF_last.cas.h5" in NODE0 mode ...
  Reading mesh ...
        1134 cells,     1 cell zone  ...
           1134 hexahedral cells,  zone id: 3
        3690 faces,     3 face zones ...
            450 quadrilateral wall faces,  zone id: 1
           3114 quadrilateral interior faces,  zone id: 2
            126 quadrilateral pressure-outlet faces,  zone id: 6
        1450 nodes,     1 node zone  ...
  Done.


Checking the existence of compiled "libudf" UDF library for current platform.
If needed will attempt auto-compilation...

 	 Make sure that UDF source files are in the directory 
 	 that contains your case and data files. If you have 
 	 an existing libudf directory, please remove this 
 	 directory to ensure that latest files are used. 
  

Will now auto-compile UDF library "libudf".
Copy "/home/dika/Documents/ansys_projects/glass_liquid_sloshing_simulink/io_fluent-simulink_udf.c" to "/home/dika/Documents/ansys_projects/glass_liquid_sloshing_simulink/libudf/src"
Files udf_names.c and user.udf in 3ddp_host are up-to-date.
Files udf_names.c and user.udf in 3ddp_node are up-to-date.

Working...
# linking to ../../src/io_fluent-simulink_udf.c in lnamd64/3ddp_host
# linking to ../../src/io_fluent-simulink_udf_final.c in lnamd64/3ddp_host
# building library in lnamd64/3ddp_host

# linking to ../../src/io_fluent-simulink_udf.c in lnamd64/3ddp_node
# linking to ../../src/io_fluent-simulink_udf_final.c in lnamd64/3ddp_node
# building library in lnamd64/3ddp_node


You can also see the 'log'-file in 
the working directory for this compilation history

Done.

dika-ROG-Strix-G814JV-G814JV: Opening library "/home/dika/Documents/ansys_projects/glass_liquid_sloshing_simulink/libudf"...
Done.

dika-ROG-Strix-G814JV-G814JV: Opening library "/home/dika/Documents/ansys_projects/glass_liquid_sloshing_simulink/libudf"...
	cup_ext
	read_pose_from_simulink
	write_combined_com
	write_combined_com
	cache_dt_on_load
Done.

Building...
     mesh
	distributing mesh
		parts..,
		faces..,
		nodes..,
		cells..,
        bandwidth reduction using Reverse Cuthill-McKee: 541/61 = 8.86885
     materials,
     interface,
     domains,
	mixture
	air
	water
	interaction
     zones,
	solid  (water)
	solid  (air)
	wall-solid  (water)
	wall-solid  (air)
	interior-solid  (water)
	interior-solid  (air)
	top_outer_wall  (air)
	top_outer_wall  (water)
	interior-solid
	wall-solid
	top_outer_wall
	solid
     parallel,
     dynamic zones,
        top_outer_wall
        wall-solid
Done.

> Copy "/home/dika/Documents/ansys_projects/glass_liquid_sloshing_simulink/io_fluent-simulink_udf_final.c" to "/home/dika/Documents/ansys_projects/glass_liquid_sloshing_simulink/libudf/src"
user.udf file is outdated. So, recreating the file for 3ddp_host ...
user.udf file is outdated. So, recreating the file for 3ddp_node ...

Working...
# linking to ../../src/io_fluent-simulink_udf.c in lnamd64/3ddp_host
# linking to ../../src/io_fluent-simulink_udf_final.c in lnamd64/3ddp_host
# building library in lnamd64/3ddp_host

# Generating udf_names.c because of makefile io_fluent-simulink_udf_final.c
# Compiling udf_names.o because of udf_names.c
# Compiling io_fluent-simulink_udf_final.o because of io_fluent-simulink_udf_final.c
# Linking libudf.so because of makefile user.udf udf_names.c udf_names.o io_fluent-simulink_udf_final.o
# linking to ../../src/io_fluent-simulink_udf.c in lnamd64/3ddp_node
# linking to ../../src/io_fluent-simulink_udf_final.c in lnamd64/3ddp_node
# building library in lnamd64/3ddp_node

# Generating udf_names.c because of makefile io_fluent-simulink_udf_final.c
# Compiling udf_names.o because of udf_names.c
# Compiling io_fluent-simulink_udf_final.o because of io_fluent-simulink_udf_final.c
# Linking libudf.so because of makefile user.udf udf_names.c udf_names.o io_fluent-simulink_udf_final.o

You can also see the 'log'-file in 
the working directory for this compilation history

dika-ROG-Strix-G814JV-G814JV: Opening library "/home/dika/Documents/ansys_projects/glass_liquid_sloshing_simulink/libudf"...
Done.

dika-ROG-Strix-G814JV-G814JV: Opening library "/home/dika/Documents/ansys_projects/glass_liquid_sloshing_simulink/libudf"...
	cup_ext
	read_pose_from_simulink
	cache_dt_on_load
Done.

Done.

dika-ROG-Strix-G814JV-G814JV: Opening library "/home/dika/Documents/ansys_projects/glass_liquid_sloshing_simulink/libudf"...
Done.

dika-ROG-Strix-G814JV-G814JV: Opening library "/home/dika/Documents/ansys_projects/glass_liquid_sloshing_simulink/libudf"...
	cup_ext
	read_pose_from_simulink
	cache_dt_on_load
Done.
1008 cells marked


 Interrupting at the end of timestep.
Interrupting client...

==============================================================================

Node 999999: Process 5122: Received signal SIGTERM.

==============================================================================

